LTspice 24.0.12 for Windows
Circuit: * C:\Users\rahim\Downloads\KiCad Projects\Solar_PCB\Simulations\LT3652_Simulation.asc
Start Time: Fri Jun 21 14:03:07 2024
solver = Normal
Maximum thread count: 8
tnom = 27
temp = 27
method = modified trap
Direct Newton iteration for .op point succeeded.
Total elapsed time: 92.989 seconds.

